#\#CIF1.1
##########################################################################
#               Crystallographic Information Format file 
#               Produced by PyCifRW module
# 
#  This is a CIF file.  CIF has been adopted by the International
#  Union of Crystallography as the standard for data archiving and 
#  transmission.
#
#  For information on this file format, follow the CIF links at
#  http://www.iucr.org
##########################################################################

data_Li3(CoO2)4
_symmetry_space_group_name_H-M          'P 1'
_cell_length_a                          5.65517728
_cell_length_b                          5.65517728227
_cell_length_c                          5.78347830228
_cell_angle_alpha                       119.268830852
_cell_angle_beta                        90.0
_cell_angle_gamma                       60.0000000132
_chemical_name_systematic               'Generated by pymatgen'
_symmetry_Int_Tables_number             1
_chemical_formula_structural            Li3(CoO2)4
_chemical_formula_sum                   'Li3 Co4 O8'
_cell_volume                            132.214422867
_cell_formula_units_Z                   1
loop_
  _symmetry_equiv_pos_site_id
  _symmetry_equiv_pos_as_xyz
   1  'x, y, z'
 
loop_
  _atom_site_type_symbol
  _atom_site_symmetry_multiplicity
  _atom_site_fract_x
  _atom_site_fract_y
  _atom_site_fract_z
  _atom_site_attached_hydrogens
  _atom_site_B_iso_or_equiv
  _atom_site_label
  _atom_site_occupancy
   Co  1  0.0  0.0  0.5  0  .  Co1  1
   Co  1  0.0  0.5  0.5  0  .  Co2  1
   Co  1  0.5  0.0  0.5  0  .  Co3  1
   Co  1  0.5  0.5  0.5  0  .  Co4  1
   Li  1  0.0  0.5  0.0  0  .  Li5  1
   Li  1  0.5  0.0  0.0  0  .  Li6  1
   Li  1  0.5  0.5  0.0  0  .  Li7  1
   O  1  0.2440648  0.02295705  0.28997889  0  .  O8  1
   O  1  0.26702185  0.46595631  0.71002111  0  .  O9  1
   O  1  0.23917073  0.52165855  0.28248783  0  .  O10  1
   O  1  0.73297815  0.02295705  0.28997889  0  .  O11  1
   O  1  0.26702185  0.97704295  0.71002111  0  .  O12  1
   O  1  0.76082927  0.47834145  0.71751217  0  .  O13  1
   O  1  0.73297815  0.53404369  0.28997889  0  .  O14  1
   O  1  0.7559352  0.97704295  0.71002111  0  .  O15  1
 
