#\#CIF1.1
##########################################################################
#               Crystallographic Information Format file 
#               Produced by PyCifRW module
# 
#  This is a CIF file.  CIF has been adopted by the International
#  Union of Crystallography as the standard for data archiving and 
#  transmission.
#
#  For information on this file format, follow the CIF links at
#  http://www.iucr.org
##########################################################################

data_Li5CoO4
_symmetry_space_group_name_H-M          'P 1'
_cell_length_a                          9.17697768
_cell_length_b                          9.16956801
_cell_length_c                          9.1990644
_cell_angle_alpha                       90.0
_cell_angle_beta                        90.0
_cell_angle_gamma                       90.0
_chemical_name_systematic               'Generated by pymatgen'
_symmetry_Int_Tables_number             1
_chemical_formula_structural            Li5CoO4
_chemical_formula_sum                   'Li40 Co8 O32'
_cell_volume                            774.091343129
_cell_formula_units_Z                   8
loop_
  _symmetry_equiv_pos_site_id
  _symmetry_equiv_pos_as_xyz
   1  'x, y, z'
 
loop_
  _atom_site_type_symbol
  _atom_site_symmetry_multiplicity
  _atom_site_fract_x
  _atom_site_fract_y
  _atom_site_fract_z
  _atom_site_attached_hydrogens
  _atom_site_B_iso_or_equiv
  _atom_site_label
  _atom_site_occupancy
   Co  1  0.11286414  0.14722333  0.11871992  0  .  Co1  1
   Co  1  0.11286414  0.35277667  0.61871992  0  .  Co2  1
   Co  1  0.38713586  0.64722333  0.11871992  0  .  Co3  1
   Co  1  0.38713586  0.85277667  0.61871992  0  .  Co4  1
   Co  1  0.61286414  0.14722333  0.38128008  0  .  Co5  1
   Co  1  0.61286414  0.35277667  0.88128008  0  .  Co6  1
   Co  1  0.88713586  0.64722333  0.38128008  0  .  Co7  1
   Co  1  0.88713586  0.85277667  0.88128008  0  .  Co8  1
   Li  1  0.10997195  0.61118585  0.14261081  0  .  Li9  1
   Li  1  0.10997195  0.88881415  0.64261081  0  .  Li10  1
   Li  1  0.1192101  0.10881368  0.83850075  0  .  Li11  1
   Li  1  0.1192101  0.39118632  0.33850075  0  .  Li12  1
   Li  1  0.12043979  0.85228181  0.37423074  0  .  Li13  1
   Li  1  0.12043979  0.64771819  0.87423074  0  .  Li14  1
   Li  1  0.14841595  0.87609023  0.10510527  0  .  Li15  1
   Li  1  0.14841595  0.62390977  0.60510527  0  .  Li16  1
   Li  1  0.15814564  0.1177765  0.39492327  0  .  Li17  1
   Li  1  0.15814564  0.3822235  0.89492327  0  .  Li18  1
   Li  1  0.34185436  0.8822235  0.89492327  0  .  Li19  1
   Li  1  0.34185436  0.6177765  0.39492327  0  .  Li20  1
   Li  1  0.35158405  0.37609023  0.10510527  0  .  Li21  1
   Li  1  0.35158405  0.12390977  0.60510527  0  .  Li22  1
   Li  1  0.37956021  0.14771819  0.87423074  0  .  Li23  1
   Li  1  0.37956021  0.35228181  0.37423074  0  .  Li24  1
   Li  1  0.3807899  0.89118632  0.33850075  0  .  Li25  1
   Li  1  0.3807899  0.60881368  0.83850075  0  .  Li26  1
   Li  1  0.39002805  0.11118585  0.14261081  0  .  Li27  1
   Li  1  0.39002805  0.38881415  0.64261081  0  .  Li28  1
   Li  1  0.60997195  0.61118585  0.35738919  0  .  Li29  1
   Li  1  0.60997195  0.88881415  0.85738919  0  .  Li30  1
   Li  1  0.6192101  0.10881368  0.66149925  0  .  Li31  1
   Li  1  0.6192101  0.39118632  0.16149925  0  .  Li32  1
   Li  1  0.62043979  0.64771819  0.62576926  0  .  Li33  1
   Li  1  0.62043979  0.85228181  0.12576926  0  .  Li34  1
   Li  1  0.64841595  0.62390977  0.89489473  0  .  Li35  1
   Li  1  0.64841595  0.87609023  0.39489473  0  .  Li36  1
   Li  1  0.65814564  0.1177765  0.10507673  0  .  Li37  1
   Li  1  0.65814564  0.3822235  0.60507673  0  .  Li38  1
   Li  1  0.84185436  0.6177765  0.10507673  0  .  Li39  1
   Li  1  0.84185436  0.8822235  0.60507673  0  .  Li40  1
   Li  1  0.85158405  0.37609023  0.39489473  0  .  Li41  1
   Li  1  0.85158405  0.12390977  0.89489473  0  .  Li42  1
   Li  1  0.87956021  0.14771819  0.62576926  0  .  Li43  1
   Li  1  0.87956021  0.35228181  0.12576926  0  .  Li44  1
   Li  1  0.8807899  0.60881368  0.66149925  0  .  Li45  1
   Li  1  0.8807899  0.89118632  0.16149925  0  .  Li46  1
   Li  1  0.89002805  0.11118585  0.35738919  0  .  Li47  1
   Li  1  0.89002805  0.38881415  0.85738919  0  .  Li48  1
   O  1  0.00718909  0.25088961  0.48357514  0  .  O49  1
   O  1  0.00718909  0.24911039  0.98357514  0  .  O50  1
   O  1  0.03640896  0.00633892  0.24650917  0  .  O51  1
   O  1  0.03640896  0.49366108  0.74650917  0  .  O52  1
   O  1  0.24473902  0.03365037  0.99936612  0  .  O53  1
   O  1  0.24473902  0.46634963  0.49936612  0  .  O54  1
   O  1  0.24624444  0.24640653  0.24094402  0  .  O55  1
   O  1  0.24624444  0.25359347  0.74094402  0  .  O56  1
   O  1  0.25375556  0.74640653  0.24094402  0  .  O57  1
   O  1  0.25375556  0.75359347  0.74094402  0  .  O58  1
   O  1  0.25526098  0.53365037  0.99936612  0  .  O59  1
   O  1  0.25526098  0.96634963  0.49936612  0  .  O60  1
   O  1  0.46359104  0.50633892  0.24650917  0  .  O61  1
   O  1  0.46359104  0.99366108  0.74650917  0  .  O62  1
   O  1  0.49281091  0.75088961  0.48357514  0  .  O63  1
   O  1  0.49281091  0.74911039  0.98357514  0  .  O64  1
   O  1  0.50718909  0.25088961  0.01642486  0  .  O65  1
   O  1  0.50718909  0.24911039  0.51642486  0  .  O66  1
   O  1  0.53640896  0.00633892  0.25349083  0  .  O67  1
   O  1  0.53640896  0.49366108  0.75349083  0  .  O68  1
   O  1  0.74473902  0.03365037  0.50063388  0  .  O69  1
   O  1  0.74473902  0.46634963  0.00063388  0  .  O70  1
   O  1  0.74624444  0.24640653  0.25905598  0  .  O71  1
   O  1  0.74624444  0.25359347  0.75905598  0  .  O72  1
   O  1  0.75375556  0.74640653  0.25905598  0  .  O73  1
   O  1  0.75375556  0.75359347  0.75905598  0  .  O74  1
   O  1  0.75526098  0.53365037  0.50063388  0  .  O75  1
   O  1  0.75526098  0.96634963  0.00063388  0  .  O76  1
   O  1  0.96359104  0.50633892  0.25349083  0  .  O77  1
   O  1  0.96359104  0.99366108  0.75349083  0  .  O78  1
   O  1  0.99281091  0.75088961  0.01642486  0  .  O79  1
   O  1  0.99281091  0.74911039  0.51642486  0  .  O80  1
 
