#\#CIF1.1
##########################################################################
#               Crystallographic Information Format file 
#               Produced by PyCifRW module
# 
#  This is a CIF file.  CIF has been adopted by the International
#  Union of Crystallography as the standard for data archiving and 
#  transmission.
#
#  For information on this file format, follow the CIF links at
#  http://www.iucr.org
##########################################################################

data_BaSO4
_symmetry_space_group_name_H-M          'P 1'
_cell_length_a                          7.26696581
_cell_length_b                          9.02765221
_cell_length_c                          5.54158592
_cell_angle_alpha                       90.0
_cell_angle_beta                        90.0
_cell_angle_gamma                       90.0
_chemical_name_systematic               'Generated by pymatgen'
_symmetry_Int_Tables_number             1
_chemical_formula_structural            BaSO4
_chemical_formula_sum                   'Ba4 S4 O16'
_cell_volume                            363.548207473
_cell_formula_units_Z                   4
loop_
  _symmetry_equiv_pos_site_id
  _symmetry_equiv_pos_as_xyz
   1  'x, y, z'
 
loop_
  _atom_site_type_symbol
  _atom_site_symmetry_multiplicity
  _atom_site_fract_x
  _atom_site_fract_y
  _atom_site_fract_z
  _atom_site_attached_hydrogens
  _atom_site_B_iso_or_equiv
  _atom_site_label
  _atom_site_occupancy
   Ba  1  0.15765548  0.1848464  0.25  0  .  Ba1  1
   Ba  1  0.34234452  0.6848464  0.25  0  .  Ba2  1
   Ba  1  0.65765548  0.3151536  0.75  0  .  Ba3  1
   Ba  1  0.84234452  0.8151536  0.75  0  .  Ba4  1
   O  1  0.05021877  0.3172506  0.75  0  .  O5  1
   O  1  0.10804221  0.58689105  0.75  0  .  O6  1
   O  1  0.18899451  0.91972676  0.53067652  0  .  O7  1
   O  1  0.18899451  0.91972676  0.96932348  0  .  O8  1
   O  1  0.31100549  0.41972676  0.53067652  0  .  O9  1
   O  1  0.31100549  0.41972676  0.96932348  0  .  O10  1
   O  1  0.39195779  0.08689105  0.75  0  .  O11  1
   O  1  0.44978123  0.8172506  0.75  0  .  O12  1
   O  1  0.55021877  0.1827494  0.25  0  .  O13  1
   O  1  0.60804221  0.91310895  0.25  0  .  O14  1
   O  1  0.68899451  0.58027324  0.03067652  0  .  O15  1
   O  1  0.68899451  0.58027324  0.46932348  0  .  O16  1
   O  1  0.81100549  0.08027324  0.03067652  0  .  O17  1
   O  1  0.81100549  0.08027324  0.46932348  0  .  O18  1
   O  1  0.89195779  0.41310895  0.25  0  .  O19  1
   O  1  0.94978123  0.6827494  0.25  0  .  O20  1
   S  1  0.19063211  0.43740871  0.75  0  .  S21  1
   S  1  0.30936789  0.93740871  0.75  0  .  S22  1
   S  1  0.69063211  0.06259129  0.25  0  .  S23  1
   S  1  0.80936789  0.56259129  0.25  0  .  S24  1
 
