#\#CIF1.1
##########################################################################
#               Crystallographic Information Format file 
#               Produced by PyCifRW module
# 
#  This is a CIF file.  CIF has been adopted by the International
#  Union of Crystallography as the standard for data archiving and 
#  transmission.
#
#  For information on this file format, follow the CIF links at
#  http://www.iucr.org
##########################################################################

data_K2SO4
_symmetry_space_group_name_H-M          'P 1'
_cell_length_a                          5.85902851
_cell_length_b                          10.24042239
_cell_length_c                          7.5959549
_cell_angle_alpha                       90.0
_cell_angle_beta                        90.0
_cell_angle_gamma                       90.0
_chemical_name_systematic               'Generated by pymatgen'
_symmetry_Int_Tables_number             1
_chemical_formula_structural            K2SO4
_chemical_formula_sum                   'K8 S4 O16'
_cell_volume                            455.749141546
_cell_formula_units_Z                   4
loop_
  _symmetry_equiv_pos_site_id
  _symmetry_equiv_pos_as_xyz
   1  'x, y, z'
 
loop_
  _atom_site_type_symbol
  _atom_site_symmetry_multiplicity
  _atom_site_fract_x
  _atom_site_fract_y
  _atom_site_fract_z
  _atom_site_attached_hydrogens
  _atom_site_B_iso_or_equiv
  _atom_site_label
  _atom_site_occupancy
   K  1  0.25  0.08917884  0.17143877  0  .  K1  1
   K  1  0.25  0.41082116  0.67143877  0  .  K2  1
   K  1  0.25  0.79776919  0.48891916  0  .  K3  1
   K  1  0.25  0.70223081  0.98891916  0  .  K4  1
   K  1  0.75  0.20223081  0.51108084  0  .  K5  1
   K  1  0.75  0.29776919  0.01108084  0  .  K6  1
   K  1  0.75  0.58917884  0.32856123  0  .  K7  1
   K  1  0.75  0.91082116  0.82856123  0  .  K8  1
   O  1  0.04147101  0.35252202  0.30107199  0  .  O9  1
   O  1  0.04147101  0.14747798  0.80107199  0  .  O10  1
   O  1  0.25  0.08291357  0.53689195  0  .  O11  1
   O  1  0.25  0.41708643  0.03689195  0  .  O12  1
   O  1  0.25  0.5583058  0.29811388  0  .  O13  1
   O  1  0.25  0.9416942  0.79811388  0  .  O14  1
   O  1  0.45852899  0.35252202  0.30107199  0  .  O15  1
   O  1  0.45852899  0.14747798  0.80107199  0  .  O16  1
   O  1  0.54147101  0.85252202  0.19892801  0  .  O17  1
   O  1  0.54147101  0.64747798  0.69892801  0  .  O18  1
   O  1  0.75  0.0583058  0.20188612  0  .  O19  1
   O  1  0.75  0.4416942  0.70188612  0  .  O20  1
   O  1  0.75  0.58291357  0.96310805  0  .  O21  1
   O  1  0.75  0.91708643  0.46310805  0  .  O22  1
   O  1  0.95852899  0.64747798  0.69892801  0  .  O23  1
   O  1  0.95852899  0.85252202  0.19892801  0  .  O24  1
   S  1  0.25  0.08000454  0.73265568  0  .  S25  1
   S  1  0.25  0.41999546  0.23265568  0  .  S26  1
   S  1  0.75  0.58000454  0.76734432  0  .  S27  1
   S  1  0.75  0.91999546  0.26734432  0  .  S28  1
 
