#\#CIF1.1
##########################################################################
#               Crystallographic Information Format file 
#               Produced by PyCifRW module
# 
#  This is a CIF file.  CIF has been adopted by the International
#  Union of Crystallography as the standard for data archiving and 
#  transmission.
#
#  For information on this file format, follow the CIF links at
#  http://www.iucr.org
##########################################################################

data_BiPO4
_symmetry_space_group_name_H-M          'P 1'
_cell_length_a                          4.91561563338
_cell_length_b                          7.19674759
_cell_length_c                          4.80959801945
_cell_angle_alpha                       90.0
_cell_angle_beta                        97.2646330983
_cell_angle_gamma                       90.0
_chemical_name_systematic               'Generated by pymatgen'
_symmetry_Int_Tables_number             1
_chemical_formula_structural            BiPO4
_chemical_formula_sum                   'Bi2 P2 O8'
_cell_volume                            168.780660521
_cell_formula_units_Z                   2
loop_
  _symmetry_equiv_pos_site_id
  _symmetry_equiv_pos_as_xyz
   1  'x, y, z'
 
loop_
  _atom_site_type_symbol
  _atom_site_symmetry_multiplicity
  _atom_site_fract_x
  _atom_site_fract_y
  _atom_site_fract_z
  _atom_site_attached_hydrogens
  _atom_site_B_iso_or_equiv
  _atom_site_label
  _atom_site_occupancy
   Bi  1  0.13937023  0.25  0.15626814  0  .  Bi1  1
   Bi  1  0.86062977  0.75  0.84373186  0  .  Bi2  1
   O  1  0.20639146  0.58127733  0.17068918  0  .  O3  1
   O  1  0.20639146  0.91872267  0.17068918  0  .  O4  1
   O  1  0.32457857  0.25  0.75864417  0  .  O5  1
   O  1  0.39058736  0.75  0.62912191  0  .  O6  1
   O  1  0.60941264  0.25  0.37087809  0  .  O7  1
   O  1  0.67542143  0.75  0.24135583  0  .  O8  1
   O  1  0.79360854  0.08127733  0.82931082  0  .  O9  1
   O  1  0.79360854  0.41872267  0.82931082  0  .  O10  1
   P  1  0.37238055  0.75  0.30648753  0  .  P11  1
   P  1  0.62761945  0.25  0.69351247  0  .  P12  1
 
