#\#CIF1.1
##########################################################################
#               Crystallographic Information Format file 
#               Produced by PyCifRW module
# 
#  This is a CIF file.  CIF has been adopted by the International
#  Union of Crystallography as the standard for data archiving and 
#  transmission.
#
#  For information on this file format, follow the CIF links at
#  http://www.iucr.org
##########################################################################

data_Ca(FeO2)2
_symmetry_space_group_name_H-M          'P 1'
_cell_length_a                          10.79125148
_cell_length_b                          9.27545956
_cell_length_c                          3.03391806
_cell_angle_alpha                       90.0
_cell_angle_beta                        90.0
_cell_angle_gamma                       90.0
_chemical_name_systematic               'Generated by pymatgen'
_symmetry_Int_Tables_number             1
_chemical_formula_structural            Ca(FeO2)2
_chemical_formula_sum                   'Ca4 Fe8 O16'
_cell_volume                            303.676438194
_cell_formula_units_Z                   4
loop_
  _symmetry_equiv_pos_site_id
  _symmetry_equiv_pos_as_xyz
   1  'x, y, z'
 
loop_
  _atom_site_type_symbol
  _atom_site_symmetry_multiplicity
  _atom_site_fract_x
  _atom_site_fract_y
  _atom_site_fract_z
  _atom_site_attached_hydrogens
  _atom_site_B_iso_or_equiv
  _atom_site_label
  _atom_site_occupancy
   Ca  1  0.15544998  0.7423779  0.25  0  .  Ca1  1
   Ca  1  0.34455002  0.2423779  0.25  0  .  Ca2  1
   Ca  1  0.65544543  0.75762091  0.75  0  .  Ca3  1
   Ca  1  0.84455457  0.25762091  0.75  0  .  Ca4  1
   Fe  1  0.1044317  0.41569498  0.75  0  .  Fe5  1
   Fe  1  0.11304652  0.06380375  0.25  0  .  Fe6  1
   Fe  1  0.38695348  0.56380375  0.25  0  .  Fe7  1
   Fe  1  0.3955683  0.91569498  0.75  0  .  Fe8  1
   Fe  1  0.60442788  0.08430513  0.25  0  .  Fe9  1
   Fe  1  0.6130525  0.43619428  0.75  0  .  Fe10  1
   Fe  1  0.8869475  0.93619428  0.75  0  .  Fe11  1
   Fe  1  0.89557212  0.58430513  0.25  0  .  Fe12  1
   O  1  0.02481659  0.61792051  0.75  0  .  O13  1
   O  1  0.07225171  0.91735442  0.75  0  .  O14  1
   O  1  0.16309425  0.20539983  0.75  0  .  O15  1
   O  1  0.21746398  0.47314871  0.25  0  .  O16  1
   O  1  0.28253602  0.97314871  0.25  0  .  O17  1
   O  1  0.33690575  0.70539983  0.75  0  .  O18  1
   O  1  0.42774829  0.41735442  0.75  0  .  O19  1
   O  1  0.47518341  0.11792051  0.75  0  .  O20  1
   O  1  0.52481723  0.88208165  0.25  0  .  O21  1
   O  1  0.57225341  0.58264479  0.25  0  .  O22  1
   O  1  0.66309857  0.2945982  0.25  0  .  O23  1
   O  1  0.71746067  0.02685495  0.75  0  .  O24  1
   O  1  0.78253933  0.52685495  0.75  0  .  O25  1
   O  1  0.83690143  0.7945982  0.25  0  .  O26  1
   O  1  0.92774659  0.08264479  0.25  0  .  O27  1
   O  1  0.97518277  0.38208165  0.25  0  .  O28  1
 
