#\#CIF1.1
##########################################################################
#               Crystallographic Information Format file 
#               Produced by PyCifRW module
# 
#  This is a CIF file.  CIF has been adopted by the International
#  Union of Crystallography as the standard for data archiving and 
#  transmission.
#
#  For information on this file format, follow the CIF links at
#  http://www.iucr.org
##########################################################################

data_CaCO3
_symmetry_space_group_name_H-M          'P 1'
_cell_length_a                          6.42428044681
_cell_length_b                          6.42214502531
_cell_length_c                          6.42321728633
_cell_angle_alpha                       46.3878556162
_cell_angle_beta                        46.3865991356
_cell_angle_gamma                       46.3872214355
_chemical_name_systematic               'Generated by pymatgen'
_symmetry_Int_Tables_number             1
_chemical_formula_structural            CaCO3
_chemical_formula_sum                   'Ca2 C2 O6'
_cell_volume                            126.816024699
_cell_formula_units_Z                   2
loop_
  _symmetry_equiv_pos_site_id
  _symmetry_equiv_pos_as_xyz
   1  'x, y, z'
 
loop_
  _atom_site_type_symbol
  _atom_site_symmetry_multiplicity
  _atom_site_fract_x
  _atom_site_fract_y
  _atom_site_fract_z
  _atom_site_attached_hydrogens
  _atom_site_B_iso_or_equiv
  _atom_site_label
  _atom_site_occupancy
   C  1  0.25001486  0.25001706  0.24994829  0  .  C1  1
   C  1  0.75013874  0.75013903  0.75007697  0  .  C2  1
   Ca  1  0.0002734  4.419e-05  0.99983206  0  .  Ca3  1
   Ca  1  0.50004372  0.50027422  0.49983198  0  .  Ca4  1
   O  1  0.50718265  0.99340963  0.25024723  0  .  O5  1
   O  1  0.00710192  0.75008993  0.4932771  0  .  O6  1
   O  1  0.49335477  0.00712467  0.75017355  0  .  O7  1
   O  1  0.75009038  0.49333203  0.00704668  0  .  O8  1
   O  1  0.24980247  0.50676877  0.99289628  0  .  O9  1
   O  1  0.99299708  0.24980045  0.50666987  0  .  O10  1
 
