#\#CIF1.1
##########################################################################
#               Crystallographic Information Format file 
#               Produced by PyCifRW module
# 
#  This is a CIF file.  CIF has been adopted by the International
#  Union of Crystallography as the standard for data archiving and 
#  transmission.
#
#  For information on this file format, follow the CIF links at
#  http://www.iucr.org
##########################################################################

data_Cr2O3
_symmetry_space_group_name_H-M          'P 1'
_cell_length_a                          5.46563502161
_cell_length_b                          5.46563187469
_cell_length_c                          5.46562872733
_cell_angle_alpha                       55.0842940085
_cell_angle_beta                        55.0843974965
_cell_angle_gamma                       55.0845009989
_chemical_name_systematic               'Generated by pymatgen'
_symmetry_Int_Tables_number             1
_chemical_formula_structural            Cr2O3
_chemical_formula_sum                   'Cr4 O6'
_cell_volume                            102.253287622
_cell_formula_units_Z                   2
loop_
  _symmetry_equiv_pos_site_id
  _symmetry_equiv_pos_as_xyz
   1  'x, y, z'
 
loop_
  _atom_site_type_symbol
  _atom_site_symmetry_multiplicity
  _atom_site_fract_x
  _atom_site_fract_y
  _atom_site_fract_z
  _atom_site_attached_hydrogens
  _atom_site_B_iso_or_equiv
  _atom_site_label
  _atom_site_occupancy
   Cr  1  0.15207807  0.15207807  0.15207807  0  .  Cr1  1
   Cr  1  0.34792061  0.34792061  0.34792061  0  .  Cr2  1
   Cr  1  0.65207807  0.65207807  0.65207807  0  .  Cr3  1
   Cr  1  0.84792061  0.84792061  0.84792061  0  .  Cr4  1
   O  1  0.05360089  0.75000614  0.44639429  0  .  O5  1
   O  1  0.55360089  0.94639429  0.25000614  0  .  O6  1
   O  1  0.25000614  0.55360089  0.94639429  0  .  O7  1
   O  1  0.75000614  0.44639429  0.05360089  0  .  O8  1
   O  1  0.4463943  0.05360089  0.75000614  0  .  O9  1
   O  1  0.94639429  0.25000614  0.55360089  0  .  O10  1
 
