#\#CIF1.1
##########################################################################
#               Crystallographic Information Format file 
#               Produced by PyCifRW module
# 
#  This is a CIF file.  CIF has been adopted by the International
#  Union of Crystallography as the standard for data archiving and 
#  transmission.
#
#  For information on this file format, follow the CIF links at
#  http://www.iucr.org
##########################################################################

data_BaNiO3
_symmetry_space_group_name_H-M          'P 1'
_cell_length_a                          5.71120429001
_cell_length_b                          5.71122405769
_cell_length_c                          4.78083143
_cell_angle_alpha                       90.0
_cell_angle_beta                        90.0
_cell_angle_gamma                       120.00011448
_chemical_name_systematic               'Generated by pymatgen'
_symmetry_Int_Tables_number             1
_chemical_formula_structural            BaNiO3
_chemical_formula_sum                   'Ba2 Ni2 O6'
_cell_volume                            135.04871468
_cell_formula_units_Z                   2
loop_
  _symmetry_equiv_pos_site_id
  _symmetry_equiv_pos_as_xyz
   1  'x, y, z'
 
loop_
  _atom_site_type_symbol
  _atom_site_symmetry_multiplicity
  _atom_site_fract_x
  _atom_site_fract_y
  _atom_site_fract_z
  _atom_site_attached_hydrogens
  _atom_site_B_iso_or_equiv
  _atom_site_label
  _atom_site_occupancy
   Ba  1  0.33332448  0.66664485  0.75  0  .  Ba1  1
   Ba  1  0.66667552  0.33332037  0.25  0  .  Ba2  1
   Ni  1  0.0  -6.96e-06  0.0  0  .  Ni3  1
   Ni  1  0.0  -6.96e-06  0.5  0  .  Ni4  1
   O  1  0.14603916  0.85396145  0.25  0  .  O5  1
   O  1  0.14603148  0.29205271  0.25  0  .  O6  1
   O  1  0.29206364  0.14602733  0.75  0  .  O7  1
   O  1  0.70793636  0.85396369  0.25  0  .  O8  1
   O  1  0.85396084  0.70792229  0.75  0  .  O9  1
   O  1  0.85396852  0.14602123  0.75  0  .  O10  1
 
