#\#CIF1.1
##########################################################################
#               Crystallographic Information Format file 
#               Produced by PyCifRW module
# 
#  This is a CIF file.  CIF has been adopted by the International
#  Union of Crystallography as the standard for data archiving and 
#  transmission.
#
#  For information on this file format, follow the CIF links at
#  http://www.iucr.org
##########################################################################

data_K2NiF4
_symmetry_space_group_name_H-M          'P 1'
_cell_length_a                          4.06756667
_cell_length_b                          7.20242699591
_cell_length_c                          4.06756667
_cell_angle_alpha                       73.5980130422
_cell_angle_beta                        90.0
_cell_angle_gamma                       106.401986958
_chemical_name_systematic               'Generated by pymatgen'
_symmetry_Int_Tables_number             1
_chemical_formula_structural            K2NiF4
_chemical_formula_sum                   'K2 Ni1 F4'
_cell_volume                            109.250789413
_cell_formula_units_Z                   1
loop_
  _symmetry_equiv_pos_site_id
  _symmetry_equiv_pos_as_xyz
   1  'x, y, z'
 
loop_
  _atom_site_type_symbol
  _atom_site_symmetry_multiplicity
  _atom_site_fract_x
  _atom_site_fract_y
  _atom_site_fract_z
  _atom_site_attached_hydrogens
  _atom_site_B_iso_or_equiv
  _atom_site_label
  _atom_site_occupancy
   F  1  0.5  0.0  0.0  0  .  F1  1
   F  1  0.84719994  0.69439989  0.15280006  0  .  F2  1
   F  1  0.0  0.0  0.5  0  .  F3  1
   F  1  0.15280006  0.30560011  0.84719994  0  .  F4  1
   K  1  0.6462256  0.2924512  0.3537744  0  .  K5  1
   K  1  0.3537744  0.7075488  0.6462256  0  .  K6  1
   Ni  1  0.0  0.0  0.0  0  .  Ni7  1
 
