#\#CIF1.1
##########################################################################
#               Crystallographic Information Format file 
#               Produced by PyCifRW module
# 
#  This is a CIF file.  CIF has been adopted by the International
#  Union of Crystallography as the standard for data archiving and 
#  transmission.
#
#  For information on this file format, follow the CIF links at
#  http://www.iucr.org
##########################################################################

data_Fe2SiO4
_symmetry_space_group_name_H-M          'P 1'
_cell_length_a                          4.87234415643
_cell_length_b                          10.5978618675
_cell_length_c                          6.1482319
_cell_angle_alpha                       90.0
_cell_angle_beta                        90.0
_cell_angle_gamma                       89.9880638154
_chemical_name_systematic               'Generated by pymatgen'
_symmetry_Int_Tables_number             1
_chemical_formula_structural            Fe2SiO4
_chemical_formula_sum                   'Fe8 Si4 O16'
_cell_volume                            317.472741334
_cell_formula_units_Z                   4
loop_
  _symmetry_equiv_pos_site_id
  _symmetry_equiv_pos_as_xyz
   1  'x, y, z'
 
loop_
  _atom_site_type_symbol
  _atom_site_symmetry_multiplicity
  _atom_site_fract_x
  _atom_site_fract_y
  _atom_site_fract_z
  _atom_site_attached_hydrogens
  _atom_site_B_iso_or_equiv
  _atom_site_label
  _atom_site_occupancy
   Fe  1  0.0  0.0  0.0  0  .  Fe1  1
   Fe  1  0.0  0.0  0.5  0  .  Fe2  1
   Fe  1  0.0143358  0.72051407  0.75  0  .  Fe3  1
   Fe  1  0.48565016  0.22055857  0.75  0  .  Fe4  1
   Fe  1  0.5  0.5  0.5  0  .  Fe5  1
   Fe  1  0.5  0.5  0.0  0  .  Fe6  1
   Fe  1  0.51434984  0.77944143  0.25  0  .  Fe7  1
   Fe  1  0.9856642  0.27948593  0.25  0  .  Fe8  1
   O  1  0.21137657  0.45260454  0.25  0  .  O9  1
   O  1  0.21135174  0.66580766  0.03569764  0  .  O10  1
   O  1  0.21135174  0.66580766  0.46430236  0  .  O11  1
   O  1  0.23409681  0.90809179  0.75  0  .  O12  1
   O  1  0.26562933  0.40813087  0.75  0  .  O13  1
   O  1  0.28860614  0.1658445  0.03569709  0  .  O14  1
   O  1  0.28860614  0.1658445  0.46430291  0  .  O15  1
   O  1  0.28880063  0.95270176  0.25  0  .  O16  1
   O  1  0.71119937  0.04729824  0.75  0  .  O17  1
   O  1  0.71139386  0.8341555  0.53569709  0  .  O18  1
   O  1  0.71139386  0.8341555  0.96430291  0  .  O19  1
   O  1  0.73437067  0.59186913  0.25  0  .  O20  1
   O  1  0.76590319  0.09190821  0.25  0  .  O21  1
   O  1  0.78864826  0.33419234  0.53569764  0  .  O22  1
   O  1  0.78864826  0.33419234  0.96430236  0  .  O23  1
   O  1  0.78862343  0.54739546  0.75  0  .  O24  1
   Si  1  0.07129677  0.59689733  0.25  0  .  Si25  1
   Si  1  0.42878113  0.09687579  0.25  0  .  Si26  1
   Si  1  0.57121887  0.90312421  0.75  0  .  Si27  1
   Si  1  0.92870323  0.40310267  0.75  0  .  Si28  1
 
