#\#CIF1.1
##########################################################################
#               Crystallographic Information Format file 
#               Produced by PyCifRW module
# 
#  This is a CIF file.  CIF has been adopted by the International
#  Union of Crystallography as the standard for data archiving and 
#  transmission.
#
#  For information on this file format, follow the CIF links at
#  http://www.iucr.org
##########################################################################

data_SrTiO3
_symmetry_space_group_name_H-M          'P 1'
_cell_length_a                          5.57792147
_cell_length_b                          5.57275128
_cell_length_c                          7.88784556
_cell_angle_alpha                       90.0
_cell_angle_beta                        90.0
_cell_angle_gamma                       90.0
_chemical_name_systematic               'Generated by pymatgen'
_symmetry_Int_Tables_number             1
_chemical_formula_structural            SrTiO3
_chemical_formula_sum                   'Sr4 Ti4 O12'
_cell_volume                            245.188702094
_cell_formula_units_Z                   4
loop_
  _symmetry_equiv_pos_site_id
  _symmetry_equiv_pos_as_xyz
   1  'x, y, z'
 
loop_
  _atom_site_type_symbol
  _atom_site_symmetry_multiplicity
  _atom_site_fract_x
  _atom_site_fract_y
  _atom_site_fract_z
  _atom_site_attached_hydrogens
  _atom_site_B_iso_or_equiv
  _atom_site_label
  _atom_site_occupancy
   O  1  0.03418054  0.49851337  0.25  0  .  O1  1
   O  1  0.2330776  0.23349246  0.51762381  0  .  O2  1
   O  1  0.2330776  0.23349246  0.98237619  0  .  O3  1
   O  1  0.2669224  0.73349246  0.98237619  0  .  O4  1
   O  1  0.2669224  0.73349246  0.51762381  0  .  O5  1
   O  1  0.46581946  0.99851337  0.25  0  .  O6  1
   O  1  0.53418054  0.00148663  0.75  0  .  O7  1
   O  1  0.7330776  0.26650754  0.48237619  0  .  O8  1
   O  1  0.7330776  0.26650754  0.01762381  0  .  O9  1
   O  1  0.7669224  0.76650754  0.01762381  0  .  O10  1
   O  1  0.7669224  0.76650754  0.48237619  0  .  O11  1
   O  1  0.96581946  0.50148663  0.75  0  .  O12  1
   Sr  1  0.00258478  0.99115053  0.75  0  .  Sr13  1
   Sr  1  0.49741522  0.49115053  0.75  0  .  Sr14  1
   Sr  1  0.50258478  0.50884947  0.25  0  .  Sr15  1
   Sr  1  0.99741522  0.00884947  0.25  0  .  Sr16  1
   Ti  1  0.0  0.5  0.0  0  .  Ti17  1
   Ti  1  0.0  0.5  0.5  0  .  Ti18  1
   Ti  1  0.5  0.0  0.0  0  .  Ti19  1
   Ti  1  0.5  0.0  0.5  0  .  Ti20  1
 
