#\#CIF1.1
##########################################################################
#               Crystallographic Information Format file 
#               Produced by PyCifRW module
# 
#  This is a CIF file.  CIF has been adopted by the International
#  Union of Crystallography as the standard for data archiving and 
#  transmission.
#
#  For information on this file format, follow the CIF links at
#  http://www.iucr.org
##########################################################################

data_Be2SiO4
_symmetry_space_group_name_H-M          'P 1'
_cell_length_a                          7.77108804251
_cell_length_b                          7.77108803876
_cell_length_c                          7.77108804155
_cell_angle_alpha                       108.011851466
_cell_angle_beta                        108.01185139
_cell_angle_gamma                       108.011851416
_chemical_name_systematic               'Generated by pymatgen'
_symmetry_Int_Tables_number             1
_chemical_formula_structural            Be2SiO4
_chemical_formula_sum                   'Be12 Si6 O24'
_cell_volume                            379.528689854
_cell_formula_units_Z                   6
loop_
  _symmetry_equiv_pos_site_id
  _symmetry_equiv_pos_as_xyz
   1  'x, y, z'
 
loop_
  _atom_site_type_symbol
  _atom_site_symmetry_multiplicity
  _atom_site_fract_x
  _atom_site_fract_y
  _atom_site_fract_z
  _atom_site_attached_hydrogens
  _atom_site_B_iso_or_equiv
  _atom_site_label
  _atom_site_occupancy
   Be  1  0.12683698  0.89877812  0.72097448  0  .  Be1  1
   Be  1  0.27902552  0.87316302  0.10122188  0  .  Be2  1
   Be  1  0.38996978  0.79451449  0.56813677  0  .  Be3  1
   Be  1  0.20548551  0.43186323  0.61003022  0  .  Be4  1
   Be  1  0.10122188  0.27902552  0.87316302  0  .  Be5  1
   Be  1  0.43186323  0.61003022  0.20548551  0  .  Be6  1
   Be  1  0.56813677  0.38996978  0.79451449  0  .  Be7  1
   Be  1  0.89877812  0.72097448  0.12683698  0  .  Be8  1
   Be  1  0.79451449  0.56813677  0.38996978  0  .  Be9  1
   Be  1  0.61003022  0.20548551  0.43186323  0  .  Be10  1
   Be  1  0.72097448  0.12683698  0.89877812  0  .  Be11  1
   Be  1  0.87316302  0.10122188  0.27902552  0  .  Be12  1
   O  1  0.29411483  0.99701925  0.96208144  0  .  O13  1
   O  1  0.03791856  0.70588517  0.00298075  0  .  O14  1
   O  1  0.25004905  0.91607272  0.58306365  0  .  O15  1
   O  1  0.41693635  0.74995095  0.08392728  0  .  O16  1
   O  1  0.62870364  0.9597571  0.6625085  0  .  O17  1
   O  1  0.08392728  0.41693635  0.74995095  0  .  O18  1
   O  1  0.2935562  0.62411291  0.32849278  0  .  O19  1
   O  1  0.0402429  0.3374915  0.37129636  0  .  O20  1
   O  1  0.37588709  0.67150722  0.7064438  0  .  O21  1
   O  1  0.67150722  0.7064438  0.37588709  0  .  O22  1
   O  1  0.00298075  0.03791856  0.70588517  0  .  O23  1
   O  1  0.3374915  0.37129636  0.0402429  0  .  O24  1
   O  1  0.6625085  0.62870364  0.9597571  0  .  O25  1
   O  1  0.99701925  0.96208144  0.29411483  0  .  O26  1
   O  1  0.32849278  0.2935562  0.62411291  0  .  O27  1
   O  1  0.62411291  0.32849278  0.2935562  0  .  O28  1
   O  1  0.9597571  0.6625085  0.62870364  0  .  O29  1
   O  1  0.7064438  0.37588709  0.67150722  0  .  O30  1
   O  1  0.91607272  0.58306365  0.25004905  0  .  O31  1
   O  1  0.37129636  0.0402429  0.3374915  0  .  O32  1
   O  1  0.58306365  0.25004905  0.91607272  0  .  O33  1
   O  1  0.74995095  0.08392728  0.41693635  0  .  O34  1
   O  1  0.96208144  0.29411483  0.99701925  0  .  O35  1
   O  1  0.70588517  0.00298075  0.03791856  0  .  O36  1
   Si  1  0.05462919  0.46152061  0.23431832  0  .  Si37  1
   Si  1  0.53847939  0.76568168  0.94537081  0  .  Si38  1
   Si  1  0.76568168  0.94537081  0.53847939  0  .  Si39  1
   Si  1  0.23431832  0.05462919  0.46152061  0  .  Si40  1
   Si  1  0.46152061  0.23431832  0.05462919  0  .  Si41  1
   Si  1  0.94537081  0.53847939  0.76568168  0  .  Si42  1
 
