#\#CIF1.1
##########################################################################
#               Crystallographic Information Format file 
#               Produced by PyCifRW module
# 
#  This is a CIF file.  CIF has been adopted by the International
#  Union of Crystallography as the standard for data archiving and 
#  transmission.
#
#  For information on this file format, follow the CIF links at
#  http://www.iucr.org
##########################################################################

data_MgSiO3
_symmetry_space_group_name_H-M          'P 1'
_cell_length_a                          18.41988179
_cell_length_b                          8.90944931
_cell_length_c                          5.23483943
_cell_angle_alpha                       90.0
_cell_angle_beta                        90.0
_cell_angle_gamma                       90.0
_chemical_name_systematic               'Generated by pymatgen'
_symmetry_Int_Tables_number             1
_chemical_formula_structural            MgSiO3
_chemical_formula_sum                   'Mg16 Si16 O48'
_cell_volume                            859.094749947
_cell_formula_units_Z                   16
loop_
  _symmetry_equiv_pos_site_id
  _symmetry_equiv_pos_as_xyz
   1  'x, y, z'
 
loop_
  _atom_site_type_symbol
  _atom_site_symmetry_multiplicity
  _atom_site_fract_x
  _atom_site_fract_y
  _atom_site_fract_z
  _atom_site_attached_hydrogens
  _atom_site_B_iso_or_equiv
  _atom_site_label
  _atom_site_occupancy
   Mg  1  0.123251  0.9881504  0.35889029  0  .  Mg1  1
   Mg  1  0.123251  0.5118496  0.85889029  0  .  Mg2  1
   Mg  1  0.1241348  0.34627385  0.36571617  0  .  Mg3  1
   Mg  1  0.1241348  0.15372615  0.86571617  0  .  Mg4  1
   Mg  1  0.3758652  0.65372615  0.86571617  0  .  Mg5  1
   Mg  1  0.3758652  0.84627385  0.36571617  0  .  Mg6  1
   Mg  1  0.376749  0.0118496  0.85889029  0  .  Mg7  1
   Mg  1  0.376749  0.4881504  0.35889029  0  .  Mg8  1
   Mg  1  0.623251  0.5118496  0.64110971  0  .  Mg9  1
   Mg  1  0.623251  0.9881504  0.14110971  0  .  Mg10  1
   Mg  1  0.6241348  0.15372615  0.63428383  0  .  Mg11  1
   Mg  1  0.6241348  0.34627385  0.13428383  0  .  Mg12  1
   Mg  1  0.8758652  0.65372615  0.63428383  0  .  Mg13  1
   Mg  1  0.8758652  0.84627385  0.13428383  0  .  Mg14  1
   Mg  1  0.876749  0.0118496  0.64110971  0  .  Mg15  1
   Mg  1  0.876749  0.4881504  0.14110971  0  .  Mg16  1
   O  1  0.05235586  0.80436709  0.10167841  0  .  O17  1
   O  1  0.05235586  0.69563291  0.60167841  0  .  O18  1
   O  1  0.06269396  0.15996742  0.20019754  0  .  O19  1
   O  1  0.06269396  0.34003258  0.70019754  0  .  O20  1
   O  1  0.06699114  0.51642376  0.18828222  0  .  O21  1
   O  1  0.06699114  0.98357624  0.68828222  0  .  O22  1
   O  1  0.18339168  0.15910143  0.53472985  0  .  O23  1
   O  1  0.18339168  0.34089857  0.03472985  0  .  O24  1
   O  1  0.1884805  0.00223405  0.04506493  0  .  O25  1
   O  1  0.1884805  0.49776595  0.54506493  0  .  O26  1
   O  1  0.1967237  0.77708851  0.33052008  0  .  O27  1
   O  1  0.1967237  0.72291149  0.83052008  0  .  O28  1
   O  1  0.3032763  0.22291149  0.83052008  0  .  O29  1
   O  1  0.3032763  0.27708851  0.33052008  0  .  O30  1
   O  1  0.3115195  0.50223405  0.04506493  0  .  O31  1
   O  1  0.3115195  0.99776595  0.54506493  0  .  O32  1
   O  1  0.31660832  0.65910143  0.53472985  0  .  O33  1
   O  1  0.31660832  0.84089857  0.03472985  0  .  O34  1
   O  1  0.43300886  0.01642376  0.18828222  0  .  O35  1
   O  1  0.43300886  0.48357624  0.68828222  0  .  O36  1
   O  1  0.43730604  0.65996742  0.20019754  0  .  O37  1
   O  1  0.43730604  0.84003258  0.70019754  0  .  O38  1
   O  1  0.44764414  0.19563291  0.60167841  0  .  O39  1
   O  1  0.44764414  0.30436709  0.10167841  0  .  O40  1
   O  1  0.55235586  0.69563291  0.89832159  0  .  O41  1
   O  1  0.55235586  0.80436709  0.39832159  0  .  O42  1
   O  1  0.56269396  0.15996742  0.29980246  0  .  O43  1
   O  1  0.56269396  0.34003258  0.79980246  0  .  O44  1
   O  1  0.56699114  0.51642376  0.31171778  0  .  O45  1
   O  1  0.56699114  0.98357624  0.81171778  0  .  O46  1
   O  1  0.68339168  0.15910143  0.96527015  0  .  O47  1
   O  1  0.68339168  0.34089857  0.46527015  0  .  O48  1
   O  1  0.6884805  0.00223405  0.45493507  0  .  O49  1
   O  1  0.6884805  0.49776595  0.95493507  0  .  O50  1
   O  1  0.6967237  0.72291149  0.66947992  0  .  O51  1
   O  1  0.6967237  0.77708851  0.16947992  0  .  O52  1
   O  1  0.8032763  0.22291149  0.66947992  0  .  O53  1
   O  1  0.8032763  0.27708851  0.16947992  0  .  O54  1
   O  1  0.8115195  0.50223405  0.45493507  0  .  O55  1
   O  1  0.8115195  0.99776595  0.95493507  0  .  O56  1
   O  1  0.81660832  0.65910143  0.96527015  0  .  O57  1
   O  1  0.81660832  0.84089857  0.46527015  0  .  O58  1
   O  1  0.93300886  0.01642376  0.31171778  0  .  O59  1
   O  1  0.93300886  0.48357624  0.81171778  0  .  O60  1
   O  1  0.93730604  0.65996742  0.29980246  0  .  O61  1
   O  1  0.93730604  0.84003258  0.79980246  0  .  O62  1
   O  1  0.94764414  0.19563291  0.89832159  0  .  O63  1
   O  1  0.94764414  0.30436709  0.39832159  0  .  O64  1
   Si  1  0.0262715  0.6623861  0.29669204  0  .  Si65  1
   Si  1  0.0262715  0.8376139  0.79669204  0  .  Si66  1
   Si  1  0.22814808  0.65807519  0.54932577  0  .  Si67  1
   Si  1  0.22814808  0.84192481  0.04932577  0  .  Si68  1
   Si  1  0.27185192  0.15807519  0.54932577  0  .  Si69  1
   Si  1  0.27185192  0.34192481  0.04932577  0  .  Si70  1
   Si  1  0.4737285  0.1623861  0.29669204  0  .  Si71  1
   Si  1  0.4737285  0.3376139  0.79669204  0  .  Si72  1
   Si  1  0.5262715  0.6623861  0.20330796  0  .  Si73  1
   Si  1  0.5262715  0.8376139  0.70330796  0  .  Si74  1
   Si  1  0.72814808  0.65807519  0.95067423  0  .  Si75  1
   Si  1  0.72814808  0.84192481  0.45067423  0  .  Si76  1
   Si  1  0.77185192  0.15807519  0.95067423  0  .  Si77  1
   Si  1  0.77185192  0.34192481  0.45067423  0  .  Si78  1
   Si  1  0.9737285  0.1623861  0.20330796  0  .  Si79  1
   Si  1  0.9737285  0.3376139  0.70330796  0  .  Si80  1
 
