#\#CIF1.1
##########################################################################
#               Crystallographic Information Format file 
#               Produced by PyCifRW module
# 
#  This is a CIF file.  CIF has been adopted by the International
#  Union of Crystallography as the standard for data archiving and 
#  transmission.
#
#  For information on this file format, follow the CIF links at
#  http://www.iucr.org
##########################################################################

data_ReO3
_symmetry_space_group_name_H-M          'P 1'
_cell_length_a                          3.80096322
_cell_length_b                          3.8009723
_cell_length_c                          7.59187909
_cell_angle_alpha                       90.0
_cell_angle_beta                        90.0
_cell_angle_gamma                       90.0
_chemical_name_systematic               'Generated by pymatgen'
_symmetry_Int_Tables_number             1
_chemical_formula_structural            ReO3
_chemical_formula_sum                   'Re2 O6'
_cell_volume                            109.682579258
_cell_formula_units_Z                   2
loop_
  _symmetry_equiv_pos_site_id
  _symmetry_equiv_pos_as_xyz
   1  'x, y, z'
 
loop_
  _atom_site_type_symbol
  _atom_site_symmetry_multiplicity
  _atom_site_fract_x
  _atom_site_fract_y
  _atom_site_fract_z
  _atom_site_attached_hydrogens
  _atom_site_B_iso_or_equiv
  _atom_site_label
  _atom_site_occupancy
   O  1  0.0  0.5  0.0  0  .  O1  1
   O  1  0.0  0.0  0.24999072  0  .  O2  1
   O  1  0.0  0.5  0.5  0  .  O3  1
   O  1  0.0  0.0  0.75000928  0  .  O4  1
   O  1  0.5  0.0  0.0  0  .  O5  1
   O  1  0.5  0.0  0.5  0  .  O6  1
   Re  1  0.0  0.0  0.0  0  .  Re7  1
   Re  1  0.0  0.0  0.5  0  .  Re8  1
 
