#\#CIF1.1
##########################################################################
#               Crystallographic Information Format file 
#               Produced by PyCifRW module
# 
#  This is a CIF file.  CIF has been adopted by the International
#  Union of Crystallography as the standard for data archiving and 
#  transmission.
#
#  For information on this file format, follow the CIF links at
#  http://www.iucr.org
##########################################################################

data_TiO2
_symmetry_space_group_name_H-M          'P 1'
_cell_length_a                          5.51110907356
_cell_length_b                          3.826907691
_cell_length_c                          3.82690769147
_cell_angle_alpha                       90.221669125
_cell_angle_beta                        110.872024552
_cell_angle_gamma                       110.872024572
_chemical_name_systematic               'Generated by pymatgen'
_symmetry_Int_Tables_number             1
_chemical_formula_structural            TiO2
_chemical_formula_sum                   'Ti2 O4'
_cell_volume                            69.6708035709
_cell_formula_units_Z                   2
loop_
  _symmetry_equiv_pos_site_id
  _symmetry_equiv_pos_as_xyz
   1  'x, y, z'
 
loop_
  _atom_site_type_symbol
  _atom_site_label
  _atom_site_symmetry_multiplicity
  _atom_site_fract_x
  _atom_site_fract_y
  _atom_site_fract_z
  _atom_site_attached_hydrogens
  _atom_site_B_iso_or_equiv
  _atom_site_occupancy
   O  O1  1  0.167938  0.337256  0.574422  0  .  1
   O  O2  1  0.667938  0.074422  0.837256  0  .  1
   O  O3  1  0.332062  0.925578  0.162744  0  .  1
   O  O4  1  0.832062  0.662744  0.425578  0  .  1
   Ti  Ti5  1  0.250000  0.879949  0.620051  0  .  1
   Ti  Ti6  1  0.750000  0.120051  0.379949  0  .  1
 
