#\#CIF1.1
##########################################################################
#               Crystallographic Information Format file 
#               Produced by PyCifRW module
# 
#  This is a CIF file.  CIF has been adopted by the International
#  Union of Crystallography as the standard for data archiving and 
#  transmission.
#
#  For information on this file format, follow the CIF links at
#  http://www.iucr.org
##########################################################################

data_CaWO4
_symmetry_space_group_name_H-M          'P 1'
_cell_length_a                          6.88002588001
_cell_length_b                          6.88002587347
_cell_length_c                          6.8800258731
_cell_angle_alpha                       134.491464699
_cell_angle_beta                        134.491464687
_cell_angle_gamma                       66.3213837093
_chemical_name_systematic               'Generated by pymatgen'
_symmetry_Int_Tables_number             1
_chemical_formula_structural            CaWO4
_chemical_formula_sum                   'Ca2 W2 O8'
_cell_volume                            163.138106221
_cell_formula_units_Z                   2
loop_
  _symmetry_equiv_pos_site_id
  _symmetry_equiv_pos_as_xyz
   1  'x, y, z'
 
loop_
  _atom_site_type_symbol
  _atom_site_symmetry_multiplicity
  _atom_site_fract_x
  _atom_site_fract_y
  _atom_site_fract_z
  _atom_site_attached_hydrogens
  _atom_site_B_iso_or_equiv
  _atom_site_label
  _atom_site_occupancy
   Ca  1  0.125  0.375  0.75  0  .  Ca1  1
   Ca  1  0.875  0.625  0.25  0  .  Ca2  1
   O  1  0.13675366  0.79546771  0.85431006  0  .  O3  1
   O  1  0.44115765  0.2824436  0.64568994  0  .  O4  1
   O  1  0.29546723  0.94115861  0.65871399  0  .  O5  1
   O  1  0.2175564  0.36324634  0.15871406  0  .  O6  1
   O  1  0.78244463  0.63675325  0.84128601  0  .  O7  1
   O  1  0.70453229  0.05884235  0.34128594  0  .  O8  1
   O  1  0.55884139  0.71755537  0.35430862  0  .  O9  1
   O  1  0.86324675  0.20453277  0.14569138  0  .  O10  1
   W  1  0.375  0.125  0.25  0  .  W11  1
   W  1  0.625  0.875  0.75  0  .  W12  1
 
