#\#CIF1.1
##########################################################################
#               Crystallographic Information Format file 
#               Produced by PyCifRW module
# 
#  This is a CIF file.  CIF has been adopted by the International
#  Union of Crystallography as the standard for data archiving and 
#  transmission.
#
#  For information on this file format, follow the CIF links at
#  http://www.iucr.org
##########################################################################

data_SiO2
_symmetry_space_group_name_H-M          'P 1'
_cell_length_a                          5.14394516074
_cell_length_b                          5.14394516074
_cell_length_c                          5.14394516074
_cell_angle_alpha                       120.850613657
_cell_angle_beta                        120.850613657
_cell_angle_gamma                       88.5329017298
_chemical_name_systematic               'Generated by pymatgen'
_symmetry_Int_Tables_number             1
_chemical_formula_structural            SiO2
_chemical_formula_sum                   'Si2 O4'
_cell_volume                            94.9728772811
_cell_formula_units_Z                   2
loop_
  _symmetry_equiv_pos_site_id
  _symmetry_equiv_pos_as_xyz
   1  'x, y, z'
 
loop_
  _atom_site_type_symbol
  _atom_site_label
  _atom_site_symmetry_multiplicity
  _atom_site_fract_x
  _atom_site_fract_y
  _atom_site_fract_z
  _atom_site_attached_hydrogens
  _atom_site_B_iso_or_equiv
  _atom_site_occupancy
   Si  Si1  1  0.750000  0.250000  0.500000  0  .  1
   Si  Si2  1  -0.000000  -0.000000  -0.000000  0  .  1
   O  O3  1  0.789499  0.125000  0.164499  0  .  1
   O  O4  1  0.960501  0.625000  0.835501  0  .  1
   O  O5  1  0.375000  0.210501  0.335501  0  .  1
   O  O6  1  0.875000  0.039499  0.664499  0  .  1
 
