#\#CIF1.1
##########################################################################
#               Crystallographic Information Format file 
#               Produced by PyCifRW module
# 
#  This is a CIF file.  CIF has been adopted by the International
#  Union of Crystallography as the standard for data archiving and 
#  transmission.
#
#  For information on this file format, follow the CIF links at
#  http://www.iucr.org
##########################################################################

data_MgAl2O4
_symmetry_space_group_name_H-M          'P 1'
_cell_length_a                          5.767349131
_cell_length_b                          5.767349131
_cell_length_c                          5.767349131
_cell_angle_alpha                       60.0
_cell_angle_beta                        90.0
_cell_angle_gamma                       120.0
_chemical_name_systematic               'Generated by pymatgen'
_symmetry_Int_Tables_number             1
_chemical_formula_structural            MgAl2O4
_chemical_formula_sum                   'Mg2 Al4 O8'
_cell_volume                            135.648104625
_cell_formula_units_Z                   2
loop_
  _symmetry_equiv_pos_site_id
  _symmetry_equiv_pos_as_xyz
   1  'x, y, z'
 
loop_
  _atom_site_type_symbol
  _atom_site_symmetry_multiplicity
  _atom_site_fract_x
  _atom_site_fract_y
  _atom_site_fract_z
  _atom_site_attached_hydrogens
  _atom_site_B_iso_or_equiv
  _atom_site_label
  _atom_site_occupancy
   Al  1  0.5  0.0  0.0  0  .  Al1  1
   Al  1  0.5  0.0  0.5  0  .  Al2  1
   Al  1  0.5  0.5  0.5  0  .  Al3  1
   Al  1  0.0  0.5  0.5  0  .  Al4  1
   Mg  1  0.125  0.25  0.125  0  .  Mg5  1
   Mg  1  0.875  0.75  0.875  0  .  Mg6  1
   O  1  0.73657128  0.02685743  0.73657128  0  .  O7  1
   O  1  0.73657128  0.47314257  0.29028615  0  .  O8  1
   O  1  0.29028615  0.02685743  0.73657128  0  .  O9  1
   O  1  0.73657128  0.47314257  0.73657128  0  .  O10  1
   O  1  0.70971385  0.97314257  0.26342872  0  .  O11  1
   O  1  0.26342872  0.52685743  0.26342872  0  .  O12  1
   O  1  0.26342872  0.97314257  0.26342872  0  .  O13  1
   O  1  0.26342872  0.52685743  0.70971385  0  .  O14  1
 
