#\#CIF1.1
##########################################################################
#               Crystallographic Information Format file 
#               Produced by PyCifRW module
# 
#  This is a CIF file.  CIF has been adopted by the International
#  Union of Crystallography as the standard for data archiving and 
#  transmission.
#
#  For information on this file format, follow the CIF links at
#  http://www.iucr.org
##########################################################################

data_ZrSiO4
_symmetry_space_group_name_H-M          'P 1'
_cell_length_a                          5.61575476902
_cell_length_b                          5.61575476902
_cell_length_c                          5.61575476902
_cell_angle_alpha                       106.692270597
_cell_angle_beta                        106.692270597
_cell_angle_gamma                       115.184683364
_chemical_name_systematic               'Generated by pymatgen'
_symmetry_Int_Tables_number             1
_chemical_formula_structural            ZrSiO4
_chemical_formula_sum                   'Zr2 Si2 O8'
_cell_volume                            135.306575347
_cell_formula_units_Z                   2
loop_
  _symmetry_equiv_pos_site_id
  _symmetry_equiv_pos_as_xyz
   1  'x, y, z'
 
loop_
  _atom_site_type_symbol
  _atom_site_symmetry_multiplicity
  _atom_site_fract_x
  _atom_site_fract_y
  _atom_site_fract_z
  _atom_site_attached_hydrogens
  _atom_site_B_iso_or_equiv
  _atom_site_label
  _atom_site_occupancy
   O  1  0.80605263  0.37306915  0.06701651  0  .  O1  1
   O  1  0.26096388  0.19394737  0.06701651  0  .  O2  1
   O  1  0.62693085  0.19394737  0.43298349  0  .  O3  1
   O  1  0.80605263  0.73903612  0.43298349  0  .  O4  1
   O  1  0.19394737  0.26096388  0.56701651  0  .  O5  1
   O  1  0.37306915  0.80605263  0.56701651  0  .  O6  1
   O  1  0.73903612  0.80605263  0.93298349  0  .  O7  1
   O  1  0.19394737  0.62693085  0.93298349  0  .  O8  1
   Si  1  0.625  0.375  0.25  0  .  Si9  1
   Si  1  0.375  0.625  0.75  0  .  Si10  1
   Zr  1  0.875  0.125  0.75  0  .  Zr11  1
   Zr  1  0.125  0.875  0.25  0  .  Zr12  1
 
