#\#CIF1.1
##########################################################################
#               Crystallographic Information Format file 
#               Produced by PyCifRW module
# 
#  This is a CIF file.  CIF has been adopted by the International
#  Union of Crystallography as the standard for data archiving and 
#  transmission.
#
#  For information on this file format, follow the CIF links at
#  http://www.iucr.org
##########################################################################

data_ZnSO4
_symmetry_space_group_name_H-M          'P 1'
_cell_length_a                          8.69982162
_cell_length_b                          6.81774163
_cell_length_c                          4.82865068
_cell_angle_alpha                       90.0
_cell_angle_beta                        90.0
_cell_angle_gamma                       90.0
_chemical_name_systematic               'Generated by pymatgen'
_symmetry_Int_Tables_number             1
_chemical_formula_structural            ZnSO4
_chemical_formula_sum                   'Zn4 S4 O16'
_cell_volume                            286.402414635
_cell_formula_units_Z                   4
loop_
  _symmetry_equiv_pos_site_id
  _symmetry_equiv_pos_as_xyz
   1  'x, y, z'
 
loop_
  _atom_site_type_symbol
  _atom_site_symmetry_multiplicity
  _atom_site_fract_x
  _atom_site_fract_y
  _atom_site_fract_z
  _atom_site_attached_hydrogens
  _atom_site_B_iso_or_equiv
  _atom_site_label
  _atom_site_occupancy
   O  1  0.12714279  0.06847167  0.33090341  0  .  O1  1
   O  1  0.12714279  0.43152833  0.33090341  0  .  O2  1
   O  1  0.12749213  0.25  0.76221797  0  .  O3  1
   O  1  0.14585621  0.75  0.95130547  0  .  O4  1
   O  1  0.35414379  0.25  0.45130547  0  .  O5  1
   O  1  0.37250787  0.75  0.26221797  0  .  O6  1
   O  1  0.37285721  0.56847167  0.83090341  0  .  O7  1
   O  1  0.37285721  0.93152833  0.83090341  0  .  O8  1
   O  1  0.62714279  0.06847167  0.16909659  0  .  O9  1
   O  1  0.62714279  0.43152833  0.16909659  0  .  O10  1
   O  1  0.62749213  0.25  0.73778203  0  .  O11  1
   O  1  0.64585621  0.75  0.54869453  0  .  O12  1
   O  1  0.85414379  0.25  0.04869453  0  .  O13  1
   O  1  0.87250787  0.75  0.23778203  0  .  O14  1
   O  1  0.87285721  0.56847167  0.66909659  0  .  O15  1
   O  1  0.87285721  0.93152833  0.66909659  0  .  O16  1
   S  1  0.17954131  0.25  0.46780698  0  .  S17  1
   S  1  0.32045869  0.75  0.96780698  0  .  S18  1
   S  1  0.67954131  0.25  0.03219302  0  .  S19  1
   S  1  0.82045869  0.75  0.53219302  0  .  S20  1
   Zn  1  0.0  0.0  0.0  0  .  Zn21  1
   Zn  1  0.0  0.5  0.0  0  .  Zn22  1
   Zn  1  0.5  0.0  0.5  0  .  Zn23  1
   Zn  1  0.5  0.5  0.5  0  .  Zn24  1
 
