#\#CIF1.1
##########################################################################
#               Crystallographic Information Format file 
#               Produced by PyCifRW module
# 
#  This is a CIF file.  CIF has been adopted by the International
#  Union of Crystallography as the standard for data archiving and 
#  transmission.
#
#  For information on this file format, follow the CIF links at
#  http://www.iucr.org
##########################################################################

data_LiCoO2
_symmetry_space_group_name_H-M          'P 1'
_cell_length_a                          2.84493952976
_cell_length_b                          4.96929343885
_cell_length_c                          2.8449395325
_cell_angle_alpha                       90.0000000579
_cell_angle_beta                        60.0000000386
_cell_angle_gamma                       106.633696178
_chemical_name_systematic               'Generated by pymatgen'
_symmetry_Int_Tables_number             1
_chemical_formula_structural            LiCoO2
_chemical_formula_sum                   'Li1 Co1 O2'
_cell_volume                            32.8736862346
_cell_formula_units_Z                   1
loop_
  _symmetry_equiv_pos_site_id
  _symmetry_equiv_pos_as_xyz
   1  'x, y, z'
 
loop_
  _atom_site_type_symbol
  _atom_site_symmetry_multiplicity
  _atom_site_fract_x
  _atom_site_fract_y
  _atom_site_fract_z
  _atom_site_attached_hydrogens
  _atom_site_B_iso_or_equiv
  _atom_site_label
  _atom_site_occupancy
   Co  1  0.0  0.0  0.0  0  .  Co1  1
   Li  1  0.0  0.5  0.5  0  .  Li2  1
   O  1  0.5205013  0.78075196  0.73974935  0  .  O3  1
   O  1  0.4794987  0.21924804  0.26025065  0  .  O4  1
 
